V1 in 0 PULSE(0 1 0 1n 1n 50n 100n)
R1 in out 1k
C1 out 0 1n

.tran 0.1n 200n
.print tran v(in) v(out)
.end